Version 4
SHEET 1 2808 1212
WIRE 176 -624 64 -624
WIRE 272 -624 272 -656
WIRE 272 -624 176 -624
WIRE 368 -624 272 -624
WIRE 448 -624 368 -624
WIRE 624 -624 448 -624
WIRE 944 -624 624 -624
WIRE 1040 -624 944 -624
WIRE 1376 -624 1040 -624
WIRE 1472 -624 1376 -624
WIRE 1728 -624 1472 -624
WIRE 272 -608 272 -624
WIRE 1040 -608 1040 -624
WIRE 1472 -608 1472 -624
WIRE 176 -560 176 -624
WIRE 944 -560 944 -624
WIRE 1376 -560 1376 -624
WIRE 64 -544 64 -624
WIRE 624 -544 624 -624
WIRE 272 -512 272 -528
WIRE 272 -512 240 -512
WIRE 1040 -512 1040 -528
WIRE 1040 -512 1008 -512
WIRE 1472 -512 1472 -528
WIRE 1472 -512 1440 -512
WIRE 272 -480 272 -512
WIRE 1040 -480 1040 -512
WIRE 1472 -480 1472 -512
WIRE 176 -432 176 -464
WIRE 208 -432 176 -432
WIRE 944 -432 944 -464
WIRE 976 -432 944 -432
WIRE 1376 -432 1376 -464
WIRE 1408 -432 1376 -432
WIRE 176 -416 176 -432
WIRE 944 -416 944 -432
WIRE 1376 -416 1376 -432
WIRE 176 -320 176 -336
WIRE 944 -320 944 -336
WIRE 1376 -320 1376 -336
WIRE 1040 -304 1040 -384
WIRE 448 -288 448 -624
WIRE 64 -256 64 -464
WIRE 416 -256 64 -256
WIRE 624 -256 624 -464
WIRE 624 -256 480 -256
WIRE 64 -224 64 -256
WIRE 624 -224 624 -256
WIRE 144 -176 128 -176
WIRE 560 -176 144 -176
WIRE 1728 -128 1728 -624
WIRE 272 -112 272 -384
WIRE 1472 -80 1472 -384
WIRE 1664 -80 1472 -80
WIRE 64 -64 64 -128
WIRE 144 -64 144 -176
WIRE 144 -64 64 -64
WIRE 368 -64 368 -624
WIRE 64 -48 64 -64
WIRE 624 -48 624 -128
WIRE 1728 0 1728 -32
WIRE 64 48 64 32
WIRE 64 48 32 48
WIRE 624 48 624 32
WIRE 656 48 624 48
WIRE 1040 80 1040 -224
WIRE 1040 80 944 80
WIRE 1136 80 1040 80
WIRE 64 112 64 48
WIRE 368 112 368 16
WIRE 624 112 624 48
WIRE 944 112 944 80
WIRE 1136 112 1136 80
WIRE 1632 112 1600 112
WIRE 1728 112 1728 80
WIRE 1728 112 1696 112
WIRE 208 160 128 160
WIRE 272 160 272 -32
WIRE 272 160 208 160
WIRE 304 160 272 160
WIRE 496 160 432 160
WIRE 560 160 496 160
WIRE 880 160 800 160
WIRE 1232 160 1200 160
WIRE 1264 160 1232 160
WIRE 1600 160 1600 112
WIRE 1600 160 1360 160
WIRE 1728 160 1728 112
WIRE 1760 160 1728 160
WIRE 208 208 208 160
WIRE 496 208 496 160
WIRE 1600 208 1600 160
WIRE 1632 208 1600 208
WIRE 1728 208 1728 160
WIRE 1728 208 1696 208
WIRE 368 224 368 208
WIRE 1472 224 1472 -80
WIRE 1728 240 1728 208
WIRE 272 256 272 160
WIRE 432 256 432 160
WIRE 432 256 272 256
WIRE 368 288 320 288
WIRE -48 304 -64 304
WIRE 64 304 64 208
WIRE 64 304 32 304
WIRE 320 304 320 288
WIRE 624 304 624 208
WIRE 640 304 624 304
WIRE 752 304 720 304
WIRE 1136 304 1136 208
WIRE 1360 304 1360 160
WIRE 1360 304 1408 272
WIRE 1360 304 1136 304
WIRE 64 336 64 304
WIRE 208 336 208 304
WIRE 208 336 64 336
WIRE 496 336 496 304
WIRE 624 336 624 304
WIRE 624 336 496 336
WIRE 1136 336 1136 304
WIRE 1232 336 1232 160
WIRE 1888 336 1888 176
WIRE 1952 336 1952 176
WIRE 2016 336 2016 176
WIRE 2080 336 2080 176
WIRE 2144 336 2144 176
WIRE -128 352 -144 352
WIRE 832 352 816 352
WIRE 1728 352 1728 320
WIRE 64 368 64 336
WIRE 368 368 368 288
WIRE 624 368 624 336
WIRE 320 400 320 384
WIRE 336 400 320 400
WIRE 1472 400 1472 320
WIRE 1664 400 1472 400
WIRE -64 416 -64 400
WIRE -32 416 -64 416
WIRE 0 416 -32 416
WIRE 320 416 320 400
WIRE 720 416 688 416
WIRE 752 416 752 400
WIRE 752 416 720 416
WIRE 1136 416 1136 400
WIRE 1232 416 1232 400
WIRE 1232 416 1136 416
WIRE 1136 432 1136 416
WIRE -32 448 -32 416
WIRE 720 448 720 416
WIRE 320 512 320 496
WIRE 368 512 368 432
WIRE 368 512 320 512
WIRE 1472 528 1472 400
WIRE -32 560 -32 528
WIRE 64 560 64 464
WIRE 64 560 -32 560
WIRE 192 560 64 560
WIRE 624 560 624 464
WIRE 624 560 192 560
WIRE 720 560 720 528
WIRE 720 560 624 560
WIRE 1136 576 1136 496
WIRE 1408 576 1136 576
WIRE 368 592 368 512
WIRE 944 592 944 208
WIRE 1040 592 944 592
WIRE 944 624 944 592
WIRE 1136 624 1136 576
WIRE 1040 672 1040 592
WIRE 1040 672 1008 672
WIRE 1072 672 1040 672
WIRE 192 704 192 560
WIRE 368 752 368 672
WIRE 368 752 256 752
WIRE 464 752 464 736
WIRE 368 800 368 752
WIRE 464 848 464 832
WIRE 464 848 432 848
WIRE 192 864 192 800
WIRE 464 880 464 848
WIRE 944 896 944 720
WIRE 1136 896 1136 720
WIRE 368 928 368 896
WIRE 400 928 368 928
WIRE 368 944 368 928
WIRE 192 1040 192 944
WIRE 368 1040 368 1024
WIRE 368 1040 192 1040
WIRE 464 1040 464 976
WIRE 464 1040 368 1040
WIRE 944 1040 944 976
WIRE 944 1040 464 1040
WIRE 1136 1040 1136 976
WIRE 1136 1040 944 1040
WIRE 1472 1040 1472 624
WIRE 1472 1040 1136 1040
WIRE 1728 1040 1728 448
WIRE 1728 1040 1472 1040
WIRE 368 1072 368 1040
FLAG 272 -656 VCC
FLAG 176 -320 G
FLAG 944 -320 G
FLAG 1376 -320 G
FLAG 464 736 G
FLAG -144 352 V+
FLAG 1760 160 OUT
FLAG 368 1072 VSS
FLAG 32 48 VpO
IOPIN 32 48 Out
FLAG 656 48 VnO
IOPIN 656 48 Out
FLAG 1264 160 VnO
IOPIN 1264 160 In
FLAG 800 160 VpO
IOPIN 800 160 In
FLAG 1888 336 VCC
FLAG 1952 336 VSS
FLAG 2016 336 V+
FLAG 2080 336 V-
FLAG 2144 336 G
FLAG 2144 176 0
FLAG 2080 176 0
FLAG 2016 176 0
FLAG 832 352 V-
SYMBOL Misc\\EuropeanResistor 80 -560 M0
SYMATTR InstName R1
SYMATTR Value 100k
SYMBOL npn 304 112 R0
SYMATTR InstName Q7
SYMATTR Value BC548Bv
SYMBOL Misc\\EuropeanResistor 608 -560 R0
SYMATTR InstName R4
SYMATTR Value 100k
SYMBOL Misc\\EuropeanResistor 384 1040 R180
WINDOW 0 31 76 Left 2
WINDOW 3 31 40 Left 2
SYMATTR InstName R5
SYMATTR Value 1k
SYMBOL Misc\\EuropeanResistor 480 848 R180
WINDOW 0 31 76 Left 2
WINDOW 3 31 40 Left 2
SYMATTR InstName R6
SYMATTR Value 10k
SYMBOL npn 400 880 R0
SYMATTR InstName Q10
SYMATTR Value 2SC1815
SYMBOL Misc\\EuropeanResistor 256 -624 R0
SYMATTR InstName R7
SYMATTR Value 1k
SYMBOL Misc\\EuropeanResistor 160 -432 R0
SYMATTR InstName R8
SYMATTR Value 10k
SYMBOL pnp 208 -384 M180
SYMATTR InstName Q12
SYMATTR Value 2SA1015
SYMBOL Misc\\jumper 432 256 R90
WINDOW 0 0 40 Invisible 2
SYMATTR InstName X4
SYMBOL Misc\\EuropeanResistor 1024 -624 R0
SYMATTR InstName R9
SYMATTR Value 300
SYMBOL Misc\\EuropeanResistor 928 -432 R0
SYMATTR InstName R10
SYMATTR Value 10k
SYMBOL diode 1120 336 R0
SYMATTR InstName D2
SYMATTR Value 1N4148
SYMBOL diode 1120 432 R0
SYMATTR InstName D3
SYMATTR Value 1N4148
SYMBOL Misc\\EuropeanCap 1216 336 R0
SYMATTR InstName C2
SYMATTR Value 33p
SYMBOL Misc\\EuropeanResistor 928 880 R0
SYMATTR InstName R11
SYMATTR Value 1
SYMBOL Misc\\EuropeanResistor 1120 880 R0
SYMATTR InstName R12
SYMATTR Value 1
SYMBOL Misc\\EuropeanResistor 1456 -624 R0
SYMATTR InstName R13
SYMATTR Value 300
SYMBOL Misc\\EuropeanResistor 1360 -432 R0
SYMATTR InstName R14
SYMATTR Value 10k
SYMBOL diode 1696 192 R90
WINDOW 0 0 32 VBottom 2
WINDOW 3 32 32 VTop 2
SYMATTR InstName D4
SYMATTR Value 1N4148
SYMBOL diode 1632 96 M90
WINDOW 0 0 32 VBottom 2
WINDOW 3 32 32 VTop 2
SYMATTR InstName D5
SYMATTR Value 1N4148
SYMBOL Misc\\EuropeanResistor 1712 -16 R0
SYMATTR InstName R15
SYMATTR Value 1
SYMBOL Misc\\EuropeanResistor 1712 224 R0
SYMATTR InstName R16
SYMATTR Value 1
SYMBOL pnp 240 -464 R180
SYMATTR InstName Q11
SYMATTR Value 2SA1015
SYMBOL pnp 128 -128 R180
SYMATTR InstName Q1
SYMATTR Value 2SA1015
SYMBOL pnp 560 -128 M180
SYMATTR InstName Q8
SYMATTR Value 2SA1015
SYMBOL pnp 256 800 R180
SYMATTR InstName Q4
SYMATTR Value 2SA1015
SYMBOL npn 432 800 M0
SYMATTR InstName Q9
SYMATTR Value 2SC1815
SYMBOL npn 128 112 M0
SYMATTR InstName Q2
SYMATTR Value 2SC1815
SYMBOL npn 560 112 R0
SYMATTR InstName Q3
SYMATTR Value 2SC1815
SYMBOL npn 432 208 R0
SYMATTR InstName Q5
SYMATTR Value 2SC1815
SYMBOL npn 272 208 M0
SYMATTR InstName Q6
SYMATTR Value 2SC1815
SYMBOL pnp -128 400 M180
SYMATTR InstName Q25
SYMATTR Value 2SA1015
SYMBOL pnp 1008 -464 R180
SYMATTR InstName Q15
SYMATTR Value 2SA1015
SYMBOL pnp 976 -384 M180
SYMATTR InstName Q16
SYMATTR Value 2SA1015
SYMBOL pnp 1200 208 R180
SYMATTR InstName Q13
SYMATTR Value 2SA1015
SYMBOL pnp 880 208 M180
WINDOW 0 76 -31 Left 2
WINDOW 3 76 -5 Left 2
SYMATTR InstName Q14
SYMATTR Value 2SA1015
SYMBOL npn 1008 624 M0
SYMATTR InstName Q17
SYMATTR Value 2SC1815
SYMBOL npn 1072 624 R0
SYMATTR InstName Q18
SYMATTR Value 2SC1815
SYMBOL pnp 1408 -384 M180
SYMATTR InstName Q19
SYMATTR Value 2SA1015
SYMBOL pnp 1440 -464 R180
SYMATTR InstName Q20
SYMATTR Value 2SA1015
SYMBOL pnp 1408 624 M180
SYMATTR InstName Q22
SYMATTR Value 2SA1015
SYMBOL pnp 1664 448 M180
SYMATTR InstName Q23
SYMATTR Value 2SA1015
SYMBOL npn 1664 -128 R0
SYMATTR InstName Q24
SYMATTR Value 2SC1815
SYMBOL Misc\\EuropeanResistor 336 288 M0
SYMATTR InstName R18
SYMATTR Value 10k
SYMBOL Misc\\EuropeanResistor 336 400 M0
SYMATTR InstName R19
SYMATTR Value 100k
SYMBOL TL431ED 368 400 M0
WINDOW 3 -137 16 Left 2
WINDOW 0 -74 -25 Left 2
SYMATTR InstName X10
SYMBOL Fontes\\+15V 1888 176 R0
SYMATTR InstName U1
SYMBOL Fontes\\+15V 1952 176 R0
SYMATTR SpiceModel -15V
SYMATTR InstName U2
SYMBOL Misc\\EuropeanResistor 80 -64 M0
SYMATTR InstName R17
SYMATTR Value 1k
SYMBOL Misc\\EuropeanResistor 640 -64 M0
SYMATTR InstName R20
SYMATTR Value 1k
SYMBOL Misc\\EuropeanResistor 176 848 R0
SYMATTR InstName R22
SYMATTR Value 2k
SYMBOL Misc\\EuropeanResistor 288 -128 M0
SYMATTR InstName R23
SYMATTR Value 1k
SYMBOL Misc\\EuropeanResistor 1024 -320 R0
SYMATTR InstName R21
SYMATTR Value 1k
SYMBOL Misc\\EuropeanResistor 352 576 R0
SYMATTR InstName R24
SYMATTR Value 2k
SYMBOL Misc\\EuropeanResistor 352 -80 R0
SYMATTR InstName R25
SYMATTR Value 2k
SYMBOL Potenciômetros\\T100k 448 -256 R270
SYMATTR InstName U3
SYMATTR SpiceLine a={tap}
SYMBOL npn 0 368 R0
SYMATTR InstName Q27
SYMATTR Value 2SC1815
SYMBOL Misc\\EuropeanResistor -48 544 M180
WINDOW 0 31 76 Left 2
WINDOW 3 31 40 Left 2
SYMATTR InstName R26
SYMATTR Value 100k
SYMBOL pnp 816 400 R180
SYMATTR InstName Q28
SYMATTR Value 2SA1015
SYMBOL npn 688 368 M0
SYMATTR InstName Q29
SYMATTR Value 2SC1815
SYMBOL Misc\\EuropeanResistor 736 544 R180
WINDOW 0 31 76 Left 2
WINDOW 3 31 40 Left 2
SYMATTR InstName R2
SYMATTR Value 100k
SYMBOL Misc\\EuropeanResistor -64 288 M90
WINDOW 0 5 56 VBottom 2
WINDOW 3 27 56 VTop 2
SYMATTR InstName R3
SYMATTR Value 10
SYMBOL Misc\\EuropeanResistor 624 288 M90
WINDOW 0 5 56 VBottom 2
WINDOW 3 27 56 VTop 2
SYMATTR InstName R27
SYMATTR Value 10
SYMBOL npn 1408 224 R0
SYMATTR InstName Q21
SYMATTR Value 2SC1815
TEXT 1864 -64 Left 2 ;15V: tap=0.4279
TEXT 1856 -232 Left 2 ;The OUROBOROS V1.1 audio operational amplifier
TEXT 1856 -200 Left 2 ;Designed by Álvaro "Gondolindrim" Volpato
TEXT 1856 -168 Left 2 ;This schematic is published under the Acheron Open Hardware License
TEXT 1856 -136 Left 2 ;For more information, visit http://gondolindrim.github.io/AcheronDocs/ouroboros
TEXT 1864 -32 Left 2 ;12V: tap=0.5429
TEXT 1864 0 Left 2 ;10V: tap=0.6054
TEXT 1864 -96 Left 2 ;20V: tap=0.1942
TEXT 1872 32 Left 2 ;9V: tap=0.6307
TEXT 1872 64 Left 2 ;5V: tap=0.6351
TEXT 1864 -296 Left 2 !.step param tap 0 .7 100m
TEXT 1864 -272 Left 2 !.op
