Version 4
SHEET 1 3320 1084
WIRE 688 -2096 672 -2096
WIRE 784 -2096 768 -2096
WIRE 2288 -1840 2208 -1840
WIRE 2448 -1840 2368 -1840
WIRE 2288 -1760 2288 -1776
WIRE 2112 -1744 2080 -1744
WIRE 2208 -1744 2208 -1840
WIRE 2208 -1744 2192 -1744
WIRE 2240 -1744 2208 -1744
WIRE 2080 -1696 2080 -1744
WIRE 2080 -1696 2048 -1696
WIRE 2448 -1696 2448 -1840
WIRE 2448 -1696 2432 -1696
WIRE 2448 -1680 2448 -1696
WIRE 2080 -1648 2080 -1696
WIRE 2112 -1648 2080 -1648
WIRE 2208 -1648 2192 -1648
WIRE 2240 -1648 2208 -1648
WIRE 2352 -1648 2352 -1664
WIRE 2208 -1632 2208 -1648
WIRE 2288 -1616 2288 -1632
WIRE 2448 -1584 2448 -1600
WIRE 2208 -1536 2208 -1552
FLAG 672 -2096 0
FLAG 784 -2096 V+
IOPIN 784 -2096 Out
FLAG 2352 -1648 0
FLAG 2208 -1536 0
FLAG 2448 -1584 0
FLAG 2048 -1696 V+
IOPIN 2048 -1696 In
FLAG 2448 -1840 O15
SYMBOL voltage 784 -2096 R90
WINDOW 123 24 44 Left 2
WINDOW 39 0 0 Left 2
SYMATTR Value2 AC 1 0
SYMATTR InstName V1
SYMATTR Value ""
SYMBOL Fontes\\+15V 2288 -1776 R0
SYMATTR InstName U9
SYMBOL Fontes\\-15V 2288 -1616 R0
SYMATTR InstName U10
SYMBOL ouroboros 2288 -1696 R0
SYMATTR InstName X5
SYMATTR SpiceLine tap={0.496751}
SYMBOL Misc\\EuropeanResistor 2208 -1760 R90
WINDOW 0 5 56 VBottom 2
WINDOW 3 27 56 VTop 2
SYMATTR InstName R16
SYMATTR Value 1k
SYMBOL Misc\\EuropeanResistor 2384 -1856 R90
WINDOW 0 5 56 VBottom 2
WINDOW 3 27 56 VTop 2
SYMATTR InstName R17
SYMATTR Value 1k
SYMBOL Misc\\EuropeanResistor 2208 -1664 R90
WINDOW 0 5 56 VBottom 2
WINDOW 3 27 56 VTop 2
SYMATTR InstName R18
SYMATTR Value 1k
SYMBOL Misc\\EuropeanResistor 2224 -1536 R180
WINDOW 0 31 76 Left 2
WINDOW 3 31 40 Left 2
SYMATTR InstName R19
SYMATTR Value 1k
SYMBOL Misc\\EuropeanResistor 2464 -1584 R180
WINDOW 0 31 76 Left 2
WINDOW 3 31 40 Left 2
SYMATTR InstName R20
SYMATTR Value 1k
TEXT 1128 -2072 Left 2 ;.step param tap 0.658 0.660 0.1m
TEXT 1128 -2040 Left 2 !.ac dec 1000 1 1mega
TEXT 1128 -2008 Left 2 ;.meas OP tapZero FIND tap WHEN V(n002)=0
