Version 4
SHEET 1 3320 1084
WIRE 688 -2096 672 -2096
WIRE 784 -2096 768 -2096
WIRE 432 -1840 352 -1840
WIRE 592 -1840 512 -1840
WIRE 896 -1840 816 -1840
WIRE 1056 -1840 976 -1840
WIRE 1360 -1840 1280 -1840
WIRE 1520 -1840 1440 -1840
WIRE 1824 -1840 1744 -1840
WIRE 1984 -1840 1904 -1840
WIRE 2288 -1840 2208 -1840
WIRE 2448 -1840 2368 -1840
WIRE 2752 -1840 2672 -1840
WIRE 2912 -1840 2832 -1840
WIRE 432 -1760 432 -1776
WIRE 896 -1760 896 -1776
WIRE 1360 -1760 1360 -1776
WIRE 1824 -1760 1824 -1776
WIRE 2288 -1760 2288 -1776
WIRE 2752 -1760 2752 -1776
WIRE 256 -1744 224 -1744
WIRE 352 -1744 352 -1840
WIRE 352 -1744 336 -1744
WIRE 384 -1744 352 -1744
WIRE 720 -1744 688 -1744
WIRE 816 -1744 816 -1840
WIRE 816 -1744 800 -1744
WIRE 848 -1744 816 -1744
WIRE 1184 -1744 1152 -1744
WIRE 1280 -1744 1280 -1840
WIRE 1280 -1744 1264 -1744
WIRE 1312 -1744 1280 -1744
WIRE 1648 -1744 1616 -1744
WIRE 1744 -1744 1744 -1840
WIRE 1744 -1744 1728 -1744
WIRE 1776 -1744 1744 -1744
WIRE 2112 -1744 2080 -1744
WIRE 2208 -1744 2208 -1840
WIRE 2208 -1744 2192 -1744
WIRE 2240 -1744 2208 -1744
WIRE 2576 -1744 2544 -1744
WIRE 2672 -1744 2672 -1840
WIRE 2672 -1744 2656 -1744
WIRE 2704 -1744 2672 -1744
WIRE 224 -1696 224 -1744
WIRE 224 -1696 192 -1696
WIRE 592 -1696 592 -1840
WIRE 592 -1696 576 -1696
WIRE 688 -1696 688 -1744
WIRE 688 -1696 656 -1696
WIRE 1056 -1696 1056 -1840
WIRE 1056 -1696 1040 -1696
WIRE 1152 -1696 1152 -1744
WIRE 1152 -1696 1120 -1696
WIRE 1520 -1696 1520 -1840
WIRE 1520 -1696 1504 -1696
WIRE 1616 -1696 1616 -1744
WIRE 1616 -1696 1584 -1696
WIRE 1984 -1696 1984 -1840
WIRE 1984 -1696 1968 -1696
WIRE 2080 -1696 2080 -1744
WIRE 2080 -1696 2048 -1696
WIRE 2448 -1696 2448 -1840
WIRE 2448 -1696 2432 -1696
WIRE 2544 -1696 2544 -1744
WIRE 2544 -1696 2512 -1696
WIRE 2912 -1696 2912 -1840
WIRE 2912 -1696 2896 -1696
WIRE 592 -1680 592 -1696
WIRE 1056 -1680 1056 -1696
WIRE 1520 -1680 1520 -1696
WIRE 1984 -1680 1984 -1696
WIRE 2448 -1680 2448 -1696
WIRE 2912 -1680 2912 -1696
WIRE 224 -1648 224 -1696
WIRE 256 -1648 224 -1648
WIRE 352 -1648 336 -1648
WIRE 384 -1648 352 -1648
WIRE 496 -1648 496 -1664
WIRE 688 -1648 688 -1696
WIRE 720 -1648 688 -1648
WIRE 816 -1648 800 -1648
WIRE 848 -1648 816 -1648
WIRE 960 -1648 960 -1664
WIRE 1152 -1648 1152 -1696
WIRE 1184 -1648 1152 -1648
WIRE 1280 -1648 1264 -1648
WIRE 1312 -1648 1280 -1648
WIRE 1424 -1648 1424 -1664
WIRE 1616 -1648 1616 -1696
WIRE 1648 -1648 1616 -1648
WIRE 1744 -1648 1728 -1648
WIRE 1776 -1648 1744 -1648
WIRE 1888 -1648 1888 -1664
WIRE 2080 -1648 2080 -1696
WIRE 2112 -1648 2080 -1648
WIRE 2208 -1648 2192 -1648
WIRE 2240 -1648 2208 -1648
WIRE 2352 -1648 2352 -1664
WIRE 2544 -1648 2544 -1696
WIRE 2576 -1648 2544 -1648
WIRE 2672 -1648 2656 -1648
WIRE 2704 -1648 2672 -1648
WIRE 2816 -1648 2816 -1664
WIRE 352 -1632 352 -1648
WIRE 816 -1632 816 -1648
WIRE 1280 -1632 1280 -1648
WIRE 1744 -1632 1744 -1648
WIRE 2208 -1632 2208 -1648
WIRE 2672 -1632 2672 -1648
WIRE 432 -1616 432 -1632
WIRE 896 -1616 896 -1632
WIRE 1360 -1616 1360 -1632
WIRE 1824 -1616 1824 -1632
WIRE 2288 -1616 2288 -1632
WIRE 2752 -1616 2752 -1632
WIRE 592 -1584 592 -1600
WIRE 1056 -1584 1056 -1600
WIRE 1520 -1584 1520 -1600
WIRE 1984 -1584 1984 -1600
WIRE 2448 -1584 2448 -1600
WIRE 2912 -1584 2912 -1600
WIRE 352 -1536 352 -1552
WIRE 816 -1536 816 -1552
WIRE 1280 -1536 1280 -1552
WIRE 1744 -1536 1744 -1552
WIRE 2208 -1536 2208 -1552
WIRE 2672 -1536 2672 -1552
FLAG 672 -2096 0
FLAG 784 -2096 V+
IOPIN 784 -2096 Out
FLAG 496 -1648 0
FLAG 352 -1536 0
FLAG 592 -1584 0
FLAG 192 -1696 V+
IOPIN 192 -1696 In
FLAG 592 -1840 O5
FLAG 960 -1648 0
FLAG 816 -1536 0
FLAG 1056 -1584 0
FLAG 656 -1696 V+
IOPIN 656 -1696 In
FLAG 1056 -1840 O9
FLAG 1424 -1648 0
FLAG 1280 -1536 0
FLAG 1520 -1584 0
FLAG 1120 -1696 V+
IOPIN 1120 -1696 In
FLAG 1520 -1840 O10
FLAG 1888 -1648 0
FLAG 1744 -1536 0
FLAG 1984 -1584 0
FLAG 1584 -1696 V+
IOPIN 1584 -1696 In
FLAG 1984 -1840 O12
FLAG 2352 -1648 0
FLAG 2208 -1536 0
FLAG 2448 -1584 0
FLAG 2048 -1696 V+
IOPIN 2048 -1696 In
FLAG 2448 -1840 O15
FLAG 2816 -1648 0
FLAG 2672 -1536 0
FLAG 2912 -1584 0
FLAG 2512 -1696 V+
IOPIN 2512 -1696 In
FLAG 2912 -1840 O20
SYMBOL voltage 784 -2096 R90
WINDOW 123 24 44 Left 2
WINDOW 39 0 0 Left 2
SYMATTR Value2 AC 1 0
SYMATTR InstName V1
SYMATTR Value ""
SYMBOL Fontes\\+15V 432 -1776 R0
SYMATTR InstName U7
SYMATTR SpiceModel +5V
SYMBOL Fontes\\-15V 432 -1616 R0
SYMATTR InstName U8
SYMATTR SpiceModel -5V
SYMBOL ouroboros 432 -1696 R0
SYMATTR InstName X4
SYMATTR SpiceLine tap={0.6351}
SYMBOL Misc\\EuropeanResistor 352 -1760 R90
WINDOW 0 5 56 VBottom 2
WINDOW 3 27 56 VTop 2
SYMATTR InstName R21
SYMATTR Value 1k
SYMBOL Misc\\EuropeanResistor 528 -1856 R90
WINDOW 0 5 56 VBottom 2
WINDOW 3 27 56 VTop 2
SYMATTR InstName R22
SYMATTR Value 1k
SYMBOL Misc\\EuropeanResistor 352 -1664 R90
WINDOW 0 5 56 VBottom 2
WINDOW 3 27 56 VTop 2
SYMATTR InstName R23
SYMATTR Value 1k
SYMBOL Misc\\EuropeanResistor 368 -1536 R180
WINDOW 0 31 76 Left 2
WINDOW 3 31 40 Left 2
SYMATTR InstName R24
SYMATTR Value 1k
SYMBOL Misc\\EuropeanResistor 608 -1584 R180
WINDOW 0 31 76 Left 2
WINDOW 3 31 40 Left 2
SYMATTR InstName R25
SYMATTR Value 1k
SYMBOL Fontes\\+15V 896 -1776 R0
SYMATTR InstName U1
SYMATTR SpiceModel +9V
SYMBOL Fontes\\-15V 896 -1616 R0
SYMATTR InstName U2
SYMATTR SpiceModel -9V
SYMBOL ouroboros 896 -1696 R0
SYMATTR InstName X1
SYMATTR SpiceLine tap={0.6307}
SYMBOL Misc\\EuropeanResistor 816 -1760 R90
WINDOW 0 5 56 VBottom 2
WINDOW 3 27 56 VTop 2
SYMATTR InstName R1
SYMATTR Value 1k
SYMBOL Misc\\EuropeanResistor 992 -1856 R90
WINDOW 0 5 56 VBottom 2
WINDOW 3 27 56 VTop 2
SYMATTR InstName R2
SYMATTR Value 1k
SYMBOL Misc\\EuropeanResistor 816 -1664 R90
WINDOW 0 5 56 VBottom 2
WINDOW 3 27 56 VTop 2
SYMATTR InstName R3
SYMATTR Value 1k
SYMBOL Misc\\EuropeanResistor 832 -1536 R180
WINDOW 0 31 76 Left 2
WINDOW 3 31 40 Left 2
SYMATTR InstName R4
SYMATTR Value 1k
SYMBOL Misc\\EuropeanResistor 1072 -1584 R180
WINDOW 0 31 76 Left 2
WINDOW 3 31 40 Left 2
SYMATTR InstName R5
SYMATTR Value 1k
SYMBOL Fontes\\+15V 1360 -1776 R0
SYMATTR InstName U3
SYMATTR SpiceModel +12V
SYMBOL Fontes\\-15V 1360 -1616 R0
SYMATTR InstName U4
SYMATTR SpiceModel -12V
SYMBOL ouroboros 1360 -1696 R0
SYMATTR InstName X2
SYMATTR SpiceLine tap={0.6054}
SYMBOL Misc\\EuropeanResistor 1280 -1760 R90
WINDOW 0 5 56 VBottom 2
WINDOW 3 27 56 VTop 2
SYMATTR InstName R6
SYMATTR Value 1k
SYMBOL Misc\\EuropeanResistor 1456 -1856 R90
WINDOW 0 5 56 VBottom 2
WINDOW 3 27 56 VTop 2
SYMATTR InstName R7
SYMATTR Value 1k
SYMBOL Misc\\EuropeanResistor 1280 -1664 R90
WINDOW 0 5 56 VBottom 2
WINDOW 3 27 56 VTop 2
SYMATTR InstName R8
SYMATTR Value 1k
SYMBOL Misc\\EuropeanResistor 1296 -1536 R180
WINDOW 0 31 76 Left 2
WINDOW 3 31 40 Left 2
SYMATTR InstName R9
SYMATTR Value 1k
SYMBOL Misc\\EuropeanResistor 1536 -1584 R180
WINDOW 0 31 76 Left 2
WINDOW 3 31 40 Left 2
SYMATTR InstName R10
SYMATTR Value 1k
SYMBOL Fontes\\+15V 1824 -1776 R0
SYMATTR InstName U5
SYMATTR SpiceModel +12V
SYMBOL Fontes\\-15V 1824 -1616 R0
SYMATTR InstName U6
SYMATTR SpiceModel -12V
SYMBOL ouroboros 1824 -1696 R0
SYMATTR InstName X3
SYMATTR SpiceLine tap={0.5429}
SYMBOL Misc\\EuropeanResistor 1744 -1760 R90
WINDOW 0 5 56 VBottom 2
WINDOW 3 27 56 VTop 2
SYMATTR InstName R11
SYMATTR Value 1k
SYMBOL Misc\\EuropeanResistor 1920 -1856 R90
WINDOW 0 5 56 VBottom 2
WINDOW 3 27 56 VTop 2
SYMATTR InstName R12
SYMATTR Value 1k
SYMBOL Misc\\EuropeanResistor 1744 -1664 R90
WINDOW 0 5 56 VBottom 2
WINDOW 3 27 56 VTop 2
SYMATTR InstName R13
SYMATTR Value 1k
SYMBOL Misc\\EuropeanResistor 1760 -1536 R180
WINDOW 0 31 76 Left 2
WINDOW 3 31 40 Left 2
SYMATTR InstName R14
SYMATTR Value 1k
SYMBOL Misc\\EuropeanResistor 2000 -1584 R180
WINDOW 0 31 76 Left 2
WINDOW 3 31 40 Left 2
SYMATTR InstName R15
SYMATTR Value 1k
SYMBOL Fontes\\+15V 2288 -1776 R0
SYMATTR InstName U9
SYMBOL Fontes\\-15V 2288 -1616 R0
SYMATTR InstName U10
SYMBOL ouroboros 2288 -1696 R0
SYMATTR InstName X5
SYMATTR SpiceLine tap={0.4279}
SYMBOL Misc\\EuropeanResistor 2208 -1760 R90
WINDOW 0 5 56 VBottom 2
WINDOW 3 27 56 VTop 2
SYMATTR InstName R16
SYMATTR Value 1k
SYMBOL Misc\\EuropeanResistor 2384 -1856 R90
WINDOW 0 5 56 VBottom 2
WINDOW 3 27 56 VTop 2
SYMATTR InstName R17
SYMATTR Value 1k
SYMBOL Misc\\EuropeanResistor 2208 -1664 R90
WINDOW 0 5 56 VBottom 2
WINDOW 3 27 56 VTop 2
SYMATTR InstName R18
SYMATTR Value 1k
SYMBOL Misc\\EuropeanResistor 2224 -1536 R180
WINDOW 0 31 76 Left 2
WINDOW 3 31 40 Left 2
SYMATTR InstName R19
SYMATTR Value 1k
SYMBOL Misc\\EuropeanResistor 2464 -1584 R180
WINDOW 0 31 76 Left 2
WINDOW 3 31 40 Left 2
SYMATTR InstName R20
SYMATTR Value 1k
SYMBOL Fontes\\+15V 2752 -1776 R0
SYMATTR InstName U11
SYMATTR SpiceModel +20V
SYMBOL Fontes\\-15V 2752 -1616 R0
SYMATTR InstName U12
SYMATTR SpiceModel -20V
SYMBOL ouroboros 2752 -1696 R0
SYMATTR InstName X6
SYMATTR SpiceLine tap={0.1942}
SYMBOL Misc\\EuropeanResistor 2672 -1760 R90
WINDOW 0 5 56 VBottom 2
WINDOW 3 27 56 VTop 2
SYMATTR InstName R26
SYMATTR Value 1k
SYMBOL Misc\\EuropeanResistor 2848 -1856 R90
WINDOW 0 5 56 VBottom 2
WINDOW 3 27 56 VTop 2
SYMATTR InstName R27
SYMATTR Value 1k
SYMBOL Misc\\EuropeanResistor 2672 -1664 R90
WINDOW 0 5 56 VBottom 2
WINDOW 3 27 56 VTop 2
SYMATTR InstName R28
SYMATTR Value 1k
SYMBOL Misc\\EuropeanResistor 2688 -1536 R180
WINDOW 0 31 76 Left 2
WINDOW 3 31 40 Left 2
SYMATTR InstName R29
SYMATTR Value 1k
SYMBOL Misc\\EuropeanResistor 2928 -1584 R180
WINDOW 0 31 76 Left 2
WINDOW 3 31 40 Left 2
SYMATTR InstName R30
SYMATTR Value 1k
TEXT 1128 -2072 Left 2 ;.step param tap 0.658 0.660 0.1m
TEXT 1128 -2040 Left 2 !.ac dec 1000 1 1mega
TEXT 1128 -2008 Left 2 ;.meas OP tapZero FIND tap WHEN V(n002)=0
