Version 4
SHEET 1 3320 1084
WIRE 1216 -2320 1216 -2336
WIRE 1344 -2320 1344 -2336
WIRE 1216 -2224 1216 -2240
WIRE 1344 -2224 1344 -2240
WIRE 912 -1872 848 -1872
WIRE 1088 -1872 992 -1872
WIRE 1536 -1872 1472 -1872
WIRE 1712 -1872 1616 -1872
WIRE 2144 -1872 2080 -1872
WIRE 2320 -1872 2224 -1872
WIRE 2720 -1872 2656 -1872
WIRE 2896 -1872 2800 -1872
WIRE 928 -1760 928 -1776
WIRE 1552 -1760 1552 -1776
WIRE 2160 -1760 2160 -1776
WIRE 2736 -1760 2736 -1776
WIRE 752 -1744 720 -1744
WIRE 848 -1744 848 -1872
WIRE 848 -1744 832 -1744
WIRE 880 -1744 848 -1744
WIRE 1376 -1744 1344 -1744
WIRE 1472 -1744 1472 -1872
WIRE 1472 -1744 1456 -1744
WIRE 1504 -1744 1472 -1744
WIRE 1984 -1744 1952 -1744
WIRE 2080 -1744 2080 -1872
WIRE 2080 -1744 2064 -1744
WIRE 2112 -1744 2080 -1744
WIRE 2560 -1744 2528 -1744
WIRE 2656 -1744 2656 -1872
WIRE 2656 -1744 2640 -1744
WIRE 2688 -1744 2656 -1744
WIRE 720 -1696 720 -1744
WIRE 720 -1696 688 -1696
WIRE 1088 -1696 1088 -1872
WIRE 1088 -1696 1072 -1696
WIRE 1104 -1696 1088 -1696
WIRE 1344 -1696 1344 -1744
WIRE 1344 -1696 1312 -1696
WIRE 1712 -1696 1712 -1872
WIRE 1712 -1696 1696 -1696
WIRE 1728 -1696 1712 -1696
WIRE 1952 -1696 1952 -1744
WIRE 1952 -1696 1920 -1696
WIRE 2320 -1696 2320 -1872
WIRE 2320 -1696 2304 -1696
WIRE 2336 -1696 2320 -1696
WIRE 2528 -1696 2528 -1744
WIRE 2528 -1696 2496 -1696
WIRE 2896 -1696 2896 -1872
WIRE 2896 -1696 2880 -1696
WIRE 2912 -1696 2896 -1696
WIRE 1088 -1680 1088 -1696
WIRE 1712 -1680 1712 -1696
WIRE 2320 -1680 2320 -1696
WIRE 2896 -1680 2896 -1696
WIRE 720 -1648 720 -1696
WIRE 752 -1648 720 -1648
WIRE 848 -1648 832 -1648
WIRE 880 -1648 848 -1648
WIRE 992 -1648 992 -1664
WIRE 1344 -1648 1344 -1696
WIRE 1376 -1648 1344 -1648
WIRE 1472 -1648 1456 -1648
WIRE 1504 -1648 1472 -1648
WIRE 1616 -1648 1616 -1664
WIRE 1952 -1648 1952 -1696
WIRE 1984 -1648 1952 -1648
WIRE 2080 -1648 2064 -1648
WIRE 2112 -1648 2080 -1648
WIRE 2224 -1648 2224 -1664
WIRE 2528 -1648 2528 -1696
WIRE 2560 -1648 2528 -1648
WIRE 2656 -1648 2640 -1648
WIRE 2688 -1648 2656 -1648
WIRE 2800 -1648 2800 -1664
WIRE 928 -1616 928 -1632
WIRE 1552 -1616 1552 -1632
WIRE 2160 -1616 2160 -1632
WIRE 2736 -1616 2736 -1632
WIRE 848 -1600 848 -1648
WIRE 1472 -1600 1472 -1648
WIRE 2080 -1600 2080 -1648
WIRE 2656 -1600 2656 -1648
WIRE 1088 -1584 1088 -1600
WIRE 1712 -1584 1712 -1600
WIRE 2320 -1584 2320 -1600
WIRE 2896 -1584 2896 -1600
WIRE 848 -1488 848 -1520
WIRE 1472 -1488 1472 -1520
WIRE 2080 -1488 2080 -1520
WIRE 2656 -1488 2656 -1520
FLAG 1344 -2224 0
FLAG 1216 -2224 0
FLAG 1344 -2336 V+
IOPIN 1344 -2336 Out
FLAG 1216 -2336 V-
IOPIN 1216 -2336 Out
FLAG 992 -1648 0
FLAG 1088 -1696 D10
FLAG 848 -1488 0
FLAG 1088 -1584 0
FLAG 688 -1696 V+
IOPIN 688 -1696 In
FLAG 1616 -1648 0
FLAG 1712 -1696 D12
FLAG 1472 -1488 0
FLAG 1712 -1584 0
FLAG 1312 -1696 V+
IOPIN 1312 -1696 In
FLAG 2224 -1648 0
FLAG 2320 -1696 D15
FLAG 2080 -1488 0
FLAG 2320 -1584 0
FLAG 1920 -1696 V+
IOPIN 1920 -1696 In
FLAG 2800 -1648 0
FLAG 2896 -1696 D20
FLAG 2656 -1488 0
FLAG 2896 -1584 0
FLAG 2496 -1696 V+
IOPIN 2496 -1696 In
DATAFLAG 1104 -1696 ""
DATAFLAG 1104 -1696 ""
DATAFLAG 1728 -1696 ""
DATAFLAG 1728 -1696 ""
DATAFLAG 2336 -1696 ""
DATAFLAG 2336 -1696 ""
DATAFLAG 2912 -1696 ""
DATAFLAG 2912 -1696 ""
SYMBOL voltage 1344 -2336 R0
WINDOW 123 24 44 Left 2
WINDOW 39 0 0 Left 0
SYMATTR Value2 AC 1 0
SYMATTR InstName V1
SYMATTR Value ""
SYMBOL voltage 1216 -2336 R0
WINDOW 123 24 44 Left 2
WINDOW 39 0 0 Left 0
SYMATTR Value2 AC 1 180
SYMATTR InstName V2
SYMATTR Value ""
SYMBOL Fontes\\+15V 928 -1776 R0
SYMATTR InstName U17
SYMATTR SpiceModel +10V
SYMBOL Fontes\\-15V 928 -1616 R0
SYMATTR InstName U18
SYMATTR SpiceModel -10V
SYMBOL ouroboros 928 -1696 R0
SYMATTR InstName X9
SYMATTR SpiceLine tap={0.7411}
SYMBOL Misc\\EuropeanResistor 848 -1760 R90
WINDOW 0 5 56 VBottom 2
WINDOW 3 27 56 VTop 2
SYMATTR InstName R1
SYMATTR Value 1k
SYMBOL Misc\\EuropeanResistor 1008 -1888 R90
WINDOW 0 5 56 VBottom 2
WINDOW 3 27 56 VTop 2
SYMATTR InstName R2
SYMATTR Value 1k
SYMBOL Misc\\EuropeanResistor 848 -1664 R90
WINDOW 0 5 56 VBottom 2
WINDOW 3 27 56 VTop 2
SYMATTR InstName R3
SYMATTR Value 1k
SYMBOL Misc\\EuropeanResistor 864 -1504 R180
WINDOW 0 31 76 Left 2
WINDOW 3 31 40 Left 2
SYMATTR InstName R4
SYMATTR Value 1k
SYMBOL Misc\\EuropeanResistor 1104 -1584 R180
WINDOW 0 31 76 Left 2
WINDOW 3 31 40 Left 2
SYMATTR InstName R5
SYMATTR Value 1k
SYMBOL Fontes\\+15V 1552 -1776 R0
SYMATTR InstName U1
SYMATTR SpiceModel +12V
SYMBOL Fontes\\-15V 1552 -1616 R0
SYMATTR InstName U2
SYMATTR SpiceModel -12V
SYMBOL ouroboros 1552 -1696 R0
SYMATTR InstName X1
SYMATTR SpiceLine tap={0.7285}
SYMBOL Misc\\EuropeanResistor 1472 -1760 R90
WINDOW 0 5 56 VBottom 2
WINDOW 3 27 56 VTop 2
SYMATTR InstName R6
SYMATTR Value 1k
SYMBOL Misc\\EuropeanResistor 1632 -1888 R90
WINDOW 0 5 56 VBottom 2
WINDOW 3 27 56 VTop 2
SYMATTR InstName R7
SYMATTR Value 1k
SYMBOL Misc\\EuropeanResistor 1472 -1664 R90
WINDOW 0 5 56 VBottom 2
WINDOW 3 27 56 VTop 2
SYMATTR InstName R8
SYMATTR Value 1k
SYMBOL Misc\\EuropeanResistor 1488 -1504 R180
WINDOW 0 31 76 Left 2
WINDOW 3 31 40 Left 2
SYMATTR InstName R9
SYMATTR Value 1k
SYMBOL Misc\\EuropeanResistor 1728 -1584 R180
WINDOW 0 31 76 Left 2
WINDOW 3 31 40 Left 2
SYMATTR InstName R10
SYMATTR Value 1k
SYMBOL Fontes\\+15V 2160 -1776 R0
SYMATTR InstName U3
SYMBOL Fontes\\-15V 2160 -1616 R0
SYMATTR InstName U4
SYMBOL ouroboros 2160 -1696 R0
SYMATTR InstName X2
SYMATTR SpiceLine tap={0.7056}
SYMBOL Misc\\EuropeanResistor 2080 -1760 R90
WINDOW 0 5 56 VBottom 2
WINDOW 3 27 56 VTop 2
SYMATTR InstName R11
SYMATTR Value 1k
SYMBOL Misc\\EuropeanResistor 2240 -1888 R90
WINDOW 0 5 56 VBottom 2
WINDOW 3 27 56 VTop 2
SYMATTR InstName R12
SYMATTR Value 1k
SYMBOL Misc\\EuropeanResistor 2080 -1664 R90
WINDOW 0 5 56 VBottom 2
WINDOW 3 27 56 VTop 2
SYMATTR InstName R13
SYMATTR Value 1k
SYMBOL Misc\\EuropeanResistor 2096 -1504 R180
WINDOW 0 31 76 Left 2
WINDOW 3 31 40 Left 2
SYMATTR InstName R14
SYMATTR Value 1k
SYMBOL Misc\\EuropeanResistor 2336 -1584 R180
WINDOW 0 31 76 Left 2
WINDOW 3 31 40 Left 2
SYMATTR InstName R15
SYMATTR Value 1k
SYMBOL Fontes\\+15V 2736 -1776 R0
SYMATTR InstName U5
SYMATTR SpiceModel +20V
SYMBOL Fontes\\-15V 2736 -1616 R0
SYMATTR InstName U6
SYMATTR SpiceModel -20V
SYMBOL ouroboros 2736 -1696 R0
SYMATTR InstName X3
SYMATTR SpiceLine tap={0.6588}
SYMBOL Misc\\EuropeanResistor 2656 -1760 R90
WINDOW 0 5 56 VBottom 2
WINDOW 3 27 56 VTop 2
SYMATTR InstName R16
SYMATTR Value 1k
SYMBOL Misc\\EuropeanResistor 2816 -1888 R90
WINDOW 0 5 56 VBottom 2
WINDOW 3 27 56 VTop 2
SYMATTR InstName R17
SYMATTR Value 1k
SYMBOL Misc\\EuropeanResistor 2656 -1664 R90
WINDOW 0 5 56 VBottom 2
WINDOW 3 27 56 VTop 2
SYMATTR InstName R18
SYMATTR Value 1k
SYMBOL Misc\\EuropeanResistor 2672 -1504 R180
WINDOW 0 31 76 Left 2
WINDOW 3 31 40 Left 2
SYMATTR InstName R19
SYMATTR Value 1k
SYMBOL Misc\\EuropeanResistor 2912 -1584 R180
WINDOW 0 31 76 Left 2
WINDOW 3 31 40 Left 2
SYMATTR InstName R20
SYMATTR Value 1k
TEXT 1128 -2112 Left 2 ;.step param tap 0.658 0.660 0.1m
TEXT 1128 -2040 Left 2 !.ac dec 1000 1 1mega
TEXT 1128 -2008 Left 2 ;.meas OP tapZero FIND tap WHEN V(n002)=0
