Version 4
SHEET 1 2748 1084
WIRE 1120 -2128 1088 -2128
WIRE 1328 -2080 1312 -2080
WIRE 1344 -2080 1328 -2080
WIRE 1120 -2032 928 -2032
WIRE 1232 -2032 1232 -2048
WIRE 1120 -1872 1088 -1872
WIRE 1328 -1824 1312 -1824
WIRE 1344 -1824 1328 -1824
WIRE 928 -1776 928 -2032
WIRE 1120 -1776 928 -1776
WIRE 1232 -1776 1232 -1792
WIRE 1120 -1616 1088 -1616
WIRE 1328 -1568 1312 -1568
WIRE 1344 -1568 1328 -1568
WIRE 928 -1520 928 -1776
WIRE 1120 -1520 928 -1520
WIRE 1232 -1520 1232 -1536
WIRE 1120 -1360 1088 -1360
WIRE 1328 -1312 1312 -1312
WIRE 1344 -1312 1328 -1312
WIRE 928 -1264 928 -1520
WIRE 1120 -1264 928 -1264
WIRE 1232 -1264 1232 -1280
WIRE 1120 -1104 1088 -1104
WIRE 1328 -1056 1312 -1056
WIRE 1344 -1056 1328 -1056
WIRE 928 -1008 928 -1264
WIRE 1120 -1008 928 -1008
WIRE 1232 -1008 1232 -1024
WIRE 1120 -848 1088 -848
WIRE 1328 -800 1312 -800
WIRE 1344 -800 1328 -800
WIRE 928 -752 928 -1008
WIRE 1120 -752 928 -752
WIRE 1232 -752 1232 -768
WIRE 928 -672 928 -752
WIRE 928 -560 928 -592
FLAG 1232 -752 0
FLAG 1088 -848 0
FLAG 1232 -1008 0
FLAG 1088 -1104 0
FLAG 1232 -1264 0
FLAG 1088 -1360 0
FLAG 1232 -1520 0
FLAG 1088 -1616 0
FLAG 928 -560 0
FLAG 1328 -1568 OL10
FLAG 1328 -1312 OL12
FLAG 1328 -1056 OL15
FLAG 1328 -800 OL20
FLAG 1232 -1776 0
FLAG 1088 -1872 0
FLAG 1232 -2032 0
FLAG 1088 -2128 0
FLAG 1328 -2080 OL5
FLAG 1328 -1824 OL9
DATAFLAG 1344 -800 ""
DATAFLAG 1344 -800 ""
DATAFLAG 1344 -1056 ""
DATAFLAG 1344 -1056 ""
DATAFLAG 1344 -1312 ""
DATAFLAG 1344 -1312 ""
DATAFLAG 1344 -1568 ""
DATAFLAG 1344 -1568 ""
DATAFLAG 1344 -1824 ""
DATAFLAG 1344 -1824 ""
DATAFLAG 1344 -2080 ""
DATAFLAG 1344 -2080 ""
SYMBOL Fontes\\+15V 1168 -864 R0
SYMATTR InstName U8
SYMATTR SpiceModel +20V
SYMBOL Fontes\\-15V 1168 -736 R0
SYMATTR InstName U9
SYMATTR SpiceModel -20V
SYMBOL ouroboros 1168 -800 R0
SYMATTR InstName X1
SYMATTR SpiceLine tap=0.1942
SYMBOL Fontes\\+15V 1168 -1120 R0
SYMATTR InstName U1
SYMBOL Fontes\\-15V 1168 -992 R0
SYMATTR InstName U2
SYMBOL ouroboros 1168 -1056 R0
SYMATTR InstName X2
SYMATTR SpiceLine tap=0.4279
SYMBOL Fontes\\+15V 1168 -1376 R0
SYMATTR InstName U3
SYMATTR SpiceModel +12V
SYMBOL Fontes\\-15V 1168 -1248 R0
SYMATTR InstName U4
SYMATTR SpiceModel -12V
SYMBOL ouroboros 1168 -1312 R0
SYMATTR InstName X3
SYMATTR SpiceLine tap=0.5429
SYMBOL Fontes\\+15V 1168 -1632 R0
SYMATTR InstName U5
SYMATTR SpiceModel +10V
SYMBOL Fontes\\-15V 1168 -1504 R0
SYMATTR InstName U6
SYMATTR SpiceModel -10V
SYMBOL ouroboros 1168 -1568 R0
SYMATTR InstName X4
SYMATTR SpiceLine tap=0.6054
SYMBOL voltage 928 -688 R0
WINDOW 123 24 44 Left 2
WINDOW 39 0 0 Left 2
SYMATTR Value2 AC 1 0
SYMATTR InstName V1
SYMATTR Value ""
SYMBOL Fontes\\+15V 1168 -1888 R0
SYMATTR InstName U17
SYMATTR SpiceModel +9V
SYMBOL Fontes\\-15V 1168 -1760 R0
SYMATTR InstName U18
SYMATTR SpiceModel -9V
SYMBOL ouroboros 1168 -1824 R0
SYMATTR InstName X9
SYMATTR SpiceLine tap=0.6307
SYMBOL Fontes\\+15V 1168 -2144 R0
SYMATTR InstName U19
SYMATTR SpiceModel +5V
SYMBOL Fontes\\-15V 1168 -2016 R0
SYMATTR InstName U20
SYMATTR SpiceModel -5V
SYMBOL ouroboros 1168 -2080 R0
SYMATTR InstName X10
SYMATTR SpiceLine tap=0.6351
TEXT 344 -1504 Left 2 ;.step param tap 0.658 0.660 0.1m
TEXT 344 -1432 Left 2 !.ac dec 1000 1 10mega
TEXT 344 -1400 Left 2 ;.meas OP tapZero FIND tap WHEN V(n002)=0
TEXT 336 -1552 Left 2 ;.print AC (V(cl12)/(V(n007)-V(n010)))
