Version 4
SHEET 1 2748 1084
WIRE 1184 -1968 1088 -1968
WIRE 1328 -1968 1264 -1968
WIRE 992 -1888 928 -1888
WIRE 1088 -1888 1088 -1968
WIRE 1088 -1888 1072 -1888
WIRE 1104 -1888 1088 -1888
WIRE 1328 -1840 1328 -1968
WIRE 1328 -1840 1296 -1840
WIRE 1328 -1824 1328 -1840
WIRE 1104 -1792 1072 -1792
WIRE 1216 -1792 1216 -1808
WIRE 1184 -1680 1088 -1680
WIRE 1328 -1680 1264 -1680
WIRE 928 -1600 928 -1888
WIRE 992 -1600 928 -1600
WIRE 1088 -1600 1088 -1680
WIRE 1088 -1600 1072 -1600
WIRE 1104 -1600 1088 -1600
WIRE 1328 -1552 1328 -1680
WIRE 1328 -1552 1296 -1552
WIRE 1328 -1536 1328 -1552
WIRE 1104 -1504 1072 -1504
WIRE 1216 -1504 1216 -1520
WIRE 1328 -1440 1328 -1456
WIRE 928 -1216 928 -1600
WIRE 1120 -1216 928 -1216
WIRE 1120 -1104 1088 -1104
WIRE 1328 -1056 1312 -1056
WIRE 1344 -1056 1328 -1056
WIRE 1328 -1024 1328 -1056
WIRE 928 -1008 928 -1216
WIRE 1120 -1008 928 -1008
WIRE 1232 -1008 1232 -1024
WIRE 1328 -912 1328 -944
WIRE 928 -752 928 -1008
WIRE 1120 -752 928 -752
WIRE 928 -672 928 -752
WIRE 928 -560 928 -592
FLAG 1232 -1008 0
FLAG 1088 -1104 0
FLAG 928 -560 0
FLAG 1328 -1056 OL15
FLAG 1328 -912 0
FLAG 1216 -1504 0
FLAG 1328 -1440 0
FLAG 1072 -1504 0
FLAG 1216 -1792 0
FLAG 1072 -1792 0
DATAFLAG 1344 -1056 ""
DATAFLAG 1344 -1056 ""
DATAFLAG 1328 -1552 ""
DATAFLAG 1328 -1552 ""
DATAFLAG 1328 -1840 ""
DATAFLAG 1328 -1840 ""
SYMBOL Fontes\\+15V 1168 -1120 R0
SYMATTR InstName U1
SYMBOL Fontes\\-15V 1168 -992 R0
SYMATTR InstName U2
SYMBOL ouroboros 1168 -1056 R0
SYMATTR InstName X2
SYMATTR SpiceLine tap=0.496722
SYMBOL voltage 928 -688 R0
WINDOW 123 24 44 Left 2
WINDOW 39 0 0 Left 2
SYMATTR Value2 AC 1 0
SYMATTR InstName V1
SYMATTR Value ""
SYMBOL res 1312 -1040 R0
SYMATTR InstName R1
SYMATTR Value 0.1
SYMBOL Fontes\\+15V 1152 -1616 R0
SYMATTR InstName U5
SYMBOL Fontes\\-15V 1152 -1488 R0
SYMATTR InstName U6
SYMBOL ouroboros 1152 -1552 R0
SYMATTR InstName X3
SYMATTR SpiceLine tap=0.496722
SYMBOL res 1312 -1552 R0
SYMATTR InstName R2
SYMATTR Value 0.1
SYMBOL res 1280 -1696 R90
WINDOW 0 0 56 VBottom 2
WINDOW 3 32 56 VTop 2
SYMATTR InstName R3
SYMATTR Value 1k
SYMBOL res 1088 -1616 R90
WINDOW 0 0 56 VBottom 2
WINDOW 3 32 56 VTop 2
SYMATTR InstName R4
SYMATTR Value 1k
SYMBOL Fontes\\+15V 1152 -1904 R0
SYMATTR InstName U7
SYMBOL Fontes\\-15V 1152 -1776 R0
SYMATTR InstName U8
SYMBOL ouroboros 1152 -1840 R0
SYMATTR InstName X4
SYMATTR SpiceLine tap=0.496722
SYMBOL res 1280 -1984 R90
WINDOW 0 0 56 VBottom 2
WINDOW 3 32 56 VTop 2
SYMATTR InstName R6
SYMATTR Value 1k
SYMBOL res 1088 -1904 R90
WINDOW 0 0 56 VBottom 2
WINDOW 3 32 56 VTop 2
SYMATTR InstName R7
SYMATTR Value 1k
TEXT 344 -1504 Left 2 ;.step param tap 0.658 0.660 0.1m
TEXT 344 -1432 Left 2 !.ac dec 1000 1 10mega
TEXT 344 -1400 Left 2 ;.meas OP tapZero FIND tap WHEN V(n002)=0
TEXT 336 -1552 Left 2 ;.print AC (V(cl12)/(V(n007)-V(n010)))
