Version 4
SHEET 1 2748 1084
WIRE 960 -208 928 -208
WIRE 1168 -160 1152 -160
WIRE 1184 -160 1168 -160
WIRE 960 -112 928 -112
WIRE 1072 -112 1072 -128
FLAG 1072 -112 0
FLAG 928 -112 0
FLAG 928 -208 0
FLAG 1168 -160 OUT
DATAFLAG 1184 -160 ""
DATAFLAG 1184 -160 ""
SYMBOL Fontes\\+15V 1008 -224 R0
SYMATTR InstName U8
SYMBOL Fontes\\-15V 1008 -96 R0
SYMATTR InstName U9
SYMBOL ouroboros 1008 -160 R0
SYMATTR SpiceLine tap={0.496722}
SYMATTR InstName X1
TEXT 904 48 Left 2 ;.ac dec 1000 1 1Mega
TEXT 904 8 Left 2 !.step param tap 495m 497m 0.1m
TEXT 904 80 Left 2 !.op
TEXT 904 112 Left 2 !.meas OP tapZero FIND tap WHEN V(out)=0
