Version 4
SHEET 1 2748 1084
WIRE 1008 -224 1008 -240
WIRE 960 -208 928 -208
WIRE 1184 -160 1152 -160
WIRE 960 -112 928 -112
WIRE 1072 -112 1072 -128
WIRE 1008 -80 1008 -96
FLAG 1072 -112 0
FLAG 928 -112 0
FLAG 928 -208 0
DATAFLAG 1184 -160 ""
DATAFLAG 1184 -160 ""
SYMBOL Fontes\\+15V 1008 -240 R0
WINDOW 38 0 -30 Center 1
SYMATTR InstName U8
SYMATTR SpiceModel +12V
SYMBOL Fontes\\-15V 1008 -80 R0
WINDOW 38 0 29 Center 1
SYMATTR InstName U9
SYMATTR SpiceModel -12V
SYMBOL ouroboros 1008 -160 R0
WINDOW 39 20 17 Center 1
WINDOW 38 26 0 Center 2
SYMATTR InstName X1
SYMATTR SpiceLine tap={tap}
TEXT 904 48 Left 2 ;.ac dec 1000 1 1Mega
TEXT 904 8 Left 2 !.step param tap 0.7 0.8 10m
TEXT 904 80 Left 2 !.op
TEXT 904 112 Left 2 !.meas OP tapZero FIND tap WHEN V(n002)=0
