Version 4
SHEET 1 2748 1084
WIRE 1488 -240 1488 -256
WIRE 1952 -240 1952 -256
WIRE 2400 -240 2400 -256
WIRE 1008 -224 1008 -240
WIRE 1440 -224 1408 -224
WIRE 1904 -224 1872 -224
WIRE 2352 -224 2320 -224
WIRE 960 -208 928 -208
WIRE 1664 -176 1632 -176
WIRE 2128 -176 2096 -176
WIRE 2576 -176 2544 -176
WIRE 1184 -160 1152 -160
WIRE 1440 -128 1408 -128
WIRE 1552 -128 1552 -144
WIRE 1904 -128 1872 -128
WIRE 2016 -128 2016 -144
WIRE 2352 -128 2320 -128
WIRE 2464 -128 2464 -144
WIRE 960 -112 928 -112
WIRE 1072 -112 1072 -128
WIRE 1488 -96 1488 -112
WIRE 1952 -96 1952 -112
WIRE 2400 -96 2400 -112
WIRE 1008 -80 1008 -96
FLAG 1072 -112 0
FLAG 928 -112 0
FLAG 928 -208 0
FLAG 1552 -128 0
FLAG 1408 -128 0
FLAG 1408 -224 0
FLAG 2016 -128 0
FLAG 1872 -128 0
FLAG 1872 -224 0
FLAG 2464 -128 0
FLAG 2320 -128 0
FLAG 2320 -224 0
DATAFLAG 1184 -160 ""
DATAFLAG 1184 -160 ""
DATAFLAG 1664 -176 ""
DATAFLAG 1664 -176 ""
DATAFLAG 2128 -176 ""
DATAFLAG 2128 -176 ""
DATAFLAG 2576 -176 ""
DATAFLAG 2576 -176 ""
SYMBOL Fontes\\+15V 1008 -240 R0
SYMATTR InstName U8
SYMATTR SpiceModel +20V
SYMBOL Fontes\\-15V 1008 -80 R0
SYMATTR InstName U9
SYMATTR SpiceModel -20V
SYMBOL ouroboros 1008 -160 R0
SYMATTR InstName X1
SYMATTR SpiceLine tap=0.6589
SYMBOL Fontes\\+15V 1488 -256 R0
SYMATTR InstName U1
SYMBOL Fontes\\-15V 1488 -96 R0
SYMATTR InstName U2
SYMBOL ouroboros 1488 -176 R0
SYMATTR InstName X2
SYMATTR SpiceLine tap={0.7056}
SYMBOL Fontes\\+15V 1952 -256 R0
SYMATTR InstName U3
SYMATTR SpiceModel +12V
SYMBOL Fontes\\-15V 1952 -96 R0
SYMATTR InstName U4
SYMATTR SpiceModel -12V
SYMBOL ouroboros 1952 -176 R0
SYMATTR InstName X3
SYMATTR SpiceLine tap={0.7285}
SYMBOL Fontes\\+15V 2400 -256 R0
SYMATTR InstName U5
SYMATTR SpiceModel +10V
SYMBOL Fontes\\-15V 2400 -96 R0
SYMATTR InstName U6
SYMATTR SpiceModel -10V
SYMBOL ouroboros 2400 -176 R0
SYMATTR InstName X4
SYMATTR SpiceLine tap={0.7411}
TEXT 904 48 Left 2 ;.ac dec 1000 1 1Mega
TEXT 904 8 Left 2 ;.step param tap 0.658 0.660 0.1m
TEXT 904 80 Left 2 !.op
TEXT 904 112 Left 2 ;.meas OP tapZero FIND tap WHEN V(n002)=0
