Version 4
SHEET 1 2748 1084
WIRE 1200 -2112 912 -2112
WIRE 912 -1968 912 -2112
WIRE 944 -1968 912 -1968
WIRE 1152 -1920 1136 -1920
WIRE 1200 -1920 1200 -2112
WIRE 1200 -1920 1152 -1920
WIRE 944 -1872 832 -1872
WIRE 1056 -1872 1056 -1888
WIRE 1200 -1760 912 -1760
WIRE 912 -1616 912 -1760
WIRE 944 -1616 912 -1616
WIRE 1152 -1568 1136 -1568
WIRE 1200 -1568 1200 -1760
WIRE 1200 -1568 1152 -1568
WIRE 832 -1520 832 -1872
WIRE 944 -1520 832 -1520
WIRE 1056 -1520 1056 -1536
WIRE 1200 -1408 912 -1408
WIRE 912 -1264 912 -1408
WIRE 944 -1264 912 -1264
WIRE 1152 -1216 1136 -1216
WIRE 1200 -1216 1200 -1408
WIRE 1200 -1216 1152 -1216
WIRE 832 -1168 832 -1520
WIRE 944 -1168 832 -1168
WIRE 1056 -1168 1056 -1184
WIRE 1200 -1056 912 -1056
WIRE 912 -912 912 -1056
WIRE 944 -912 912 -912
WIRE 1152 -864 1136 -864
WIRE 1200 -864 1200 -1056
WIRE 1200 -864 1152 -864
WIRE 832 -816 832 -1168
WIRE 944 -816 832 -816
WIRE 1056 -816 1056 -832
WIRE 1200 -704 912 -704
WIRE 912 -560 912 -704
WIRE 944 -560 912 -560
WIRE 1152 -512 1136 -512
WIRE 1200 -512 1200 -704
WIRE 1200 -512 1152 -512
WIRE 832 -464 832 -816
WIRE 944 -464 832 -464
WIRE 1056 -464 1056 -480
WIRE 1216 -352 928 -352
WIRE 928 -208 928 -352
WIRE 960 -208 928 -208
WIRE 1168 -160 1152 -160
WIRE 1216 -160 1216 -352
WIRE 1216 -160 1168 -160
WIRE 832 -112 832 -464
WIRE 960 -112 832 -112
WIRE 1072 -112 1072 -128
WIRE 832 -96 832 -112
WIRE 832 0 832 -16
FLAG 1072 -112 0
FLAG 1168 -160 OUT5
FLAG 1056 -464 0
FLAG 1152 -512 OUT9
FLAG 1056 -816 0
FLAG 1152 -864 OUT10
FLAG 1056 -1168 0
FLAG 1152 -1216 OUT12
FLAG 1056 -1520 0
FLAG 1152 -1568 OUT15
FLAG 1056 -1872 0
FLAG 1152 -1920 OUT20
FLAG 832 0 0
SYMBOL Fontes\\+15V 1008 -224 R0
SYMATTR SpiceModel +5V
SYMATTR InstName U8
SYMBOL Fontes\\-15V 1008 -96 R0
SYMATTR SpiceModel -5V
SYMATTR InstName U9
SYMBOL ouroboros 1008 -160 R0
SYMATTR SpiceLine tap=0.7470
SYMATTR InstName X1
SYMBOL Fontes\\+15V 992 -576 R0
SYMATTR SpiceModel +9V
SYMATTR InstName U1
SYMBOL Fontes\\-15V 992 -448 R0
SYMATTR SpiceModel -9V
SYMATTR InstName U2
SYMBOL ouroboros 992 -512 R0
SYMATTR SpiceLine tap=0.7468
SYMATTR InstName X2
SYMBOL Fontes\\+15V 992 -928 R0
SYMATTR SpiceModel +10V
SYMATTR InstName U3
SYMBOL Fontes\\-15V 992 -800 R0
SYMATTR SpiceModel -10V
SYMATTR InstName U4
SYMBOL ouroboros 992 -864 R0
SYMATTR SpiceLine tap=0.7411
SYMATTR InstName X3
SYMBOL Fontes\\+15V 992 -1280 R0
SYMATTR SpiceModel +12V
SYMATTR InstName U5
SYMBOL Fontes\\-15V 992 -1152 R0
SYMATTR SpiceModel -12V
SYMATTR InstName U6
SYMBOL ouroboros 992 -1216 R0
SYMATTR SpiceLine tap=0.7285
SYMATTR InstName X4
SYMBOL Fontes\\+15V 992 -1632 R0
SYMATTR InstName U7
SYMBOL Fontes\\-15V 992 -1504 R0
SYMATTR InstName U10
SYMBOL ouroboros 992 -1568 R0
SYMATTR InstName X5
SYMBOL Fontes\\+15V 992 -1984 R0
SYMATTR SpiceModel +20V
SYMATTR InstName U11
SYMBOL Fontes\\-15V 992 -1856 R0
SYMATTR SpiceModel -20V
SYMATTR InstName U12
SYMBOL ouroboros 992 -1920 R0
SYMATTR SpiceLine tap=0.6588
SYMATTR InstName X6
SYMBOL voltage 832 -112 R0
WINDOW 123 0 0 Left 2
WINDOW 39 0 0 Left 2
SYMATTR InstName V1
SYMATTR Value SINE(0 5 20k)
TEXT 904 80 Left 2 !.tran 0 {2/20k} {1/20k} uic
