Version 4
SHEET 1 1876 1084
WIRE 288 304 32 304
WIRE 16 400 -32 400
WIRE 32 400 32 304
WIRE 80 400 32 400
WIRE 288 448 288 304
WIRE 288 448 272 448
WIRE 288 480 288 448
WIRE 16 496 16 400
WIRE 80 496 16 496
WIRE 192 496 192 480
WIRE 288 592 288 560
FLAG 288 592 0
FLAG 192 496 0
FLAG -32 400 0
SYMBOL ouroboros 128 448 R0
SYMATTR InstName X1
SYMATTR SpiceLine tap={0.496751}
SYMBOL Fontes\\+15V 128 384 R0
SYMATTR InstName U1
SYMBOL Fontes\\-15V 128 512 R0
SYMATTR InstName U2
SYMBOL res 272 464 R0
SYMATTR InstName R1
SYMATTR Value 1k
TEXT -552 696 Left 2 !.tran 0 1m 0
