Version 4
SHEET 1 1876 1084
WIRE 288 304 32 304
WIRE 32 400 32 304
WIRE 80 400 32 400
WIRE 288 448 288 304
WIRE 288 448 272 448
WIRE 288 480 288 448
WIRE -352 496 -384 496
WIRE -208 496 -272 496
WIRE -32 496 -128 496
WIRE 80 496 -32 496
WIRE 192 496 192 480
WIRE -32 528 -32 496
WIRE -176 544 -336 544
WIRE -336 560 -336 544
WIRE 288 592 288 560
WIRE -32 640 -32 608
WIRE -336 656 -336 640
WIRE -32 752 -32 720
FLAG -32 752 0
FLAG 288 592 0
FLAG 192 496 0
FLAG -336 656 0
FLAG -384 496 0
SYMBOL voltage -336 544 M0
WINDOW 123 24 116 Left 2
WINDOW 39 0 0 Left 2
SYMATTR Value2 AC 1
SYMATTR InstName V1
SYMATTR Value PULSE(-10 10 0.5 1p 1p 0.5 1)
SYMBOL ouroboros 128 448 R0
SYMATTR InstName X1
SYMBOL Misc\\EuropeanResistor 272 464 R0
SYMATTR InstName R1
SYMATTR Value 1k
SYMBOL Fontes\\+15V 128 384 R0
SYMATTR InstName U1
SYMBOL Fontes\\-15V 128 512 R0
SYMATTR InstName U2
SYMBOL Chaves\\Chave7 -176 496 R270
SYMATTR InstName U3
SYMATTR SpiceLine a={0V}
SYMBOL voltage -32 624 M0
WINDOW 123 24 116 Left 2
WINDOW 39 0 0 Left 2
SYMATTR Value2 AC 1
SYMATTR InstName V2
SYMATTR Value -10
SYMBOL Misc\\EuropeanResistor -48 512 R0
SYMATTR InstName R2
SYMATTR Value 1
SYMBOL voltage -256 496 M270
WINDOW 123 24 116 Left 2
WINDOW 39 0 0 Left 2
SYMATTR Value2 AC 1
SYMATTR InstName V3
SYMATTR Value 10
TEXT -554 696 Left 2 !.tran 0 {500m+300n} {500m-30n} startup uic
